CE
GW	1	601	0	0	3.75	0	0	0	5.e-3
GW	2	301	1.875	0	1.875	1.875	0	0	5.e-3
GW	3	301	-1.875	0	1.875	-1.875	0	0	5.e-3
GW	4	151	2.8125	0	0.9375	2.8125	0	0	5.e-3
GW	5	151	-2.8125	0	0.9375	-2.8125	0	0	5.e-3
GE	0
EX	0	1	301	0	1	0
GN	-1
FR	0	1	0	0	480	0
