CE
GW	1	1	0	0	3.75	0	0	0	5.e-3
GW	2	1	1.875	0	1.875	1.875	0	0.02	5.e-3
GW	3	1	-1.875	0	1.875	-1.875	0	0	5.e-3
GW	4	1	-2.8125	0	0.9375	-2.8125	0	0	5.e-3
GW	5	1	2.8125	0	0.9375	2.8125	0	0	5.e-3
GE	0
EX	0	1	1	0	1	0
GN	-1
FR	0	1	0	0	80	0
